; Filename: /Users/omaraliamer/Desktop/UofT/PhD/Courses/Fall23/MIE1666/PTO_IWS_MIE1666/Net_Files/Network3_12hr_PDA_12valves.inp
; WNTR: 0.4.0
; Created: 2023-12-20 14:31:27
[TITLE]
Modena -- Bragalli, D'Ambrosio, Lee, Lodi, Toth (2008)
Originally presented by:
Bragalli, C., D'Ambrosio, C., Lee, J., Lodi, A., & Toth, P. (2012, June). On the optimal design of water distribution networks: a practical MINLP approach. Optimization and Engineering, 13 (2), 219-246.
Details of this specific conversion process are included in:
PLACEHOLDER

[JUNCTIONS]
;ID                      Elevation       Demand Pattern                 
 1                              39.49  0.042021999056                            ;
 2                              39.62   0.78477885538                            ;
 3                               38.7    3.6674278737                            ;
 4                              37.25      1.71853416                            ;
 5                              36.27   0.67608239651                            ;
 6                              35.95   0.44101311193                            ;
 7                              35.95   0.63177955236                            ;
 8                              36.09      1.77258412                            ;
 9                              36.18   0.74447745132                            ;
 10                                37    1.5376829155                            ;
 11                              36.5   0.21675812067                            ;
 12                             37.39  0.023805490625                            ;
 13                             38.07   0.47902105221                            ;
 14                             37.02   0.26084539346                            ;
 15                             41.26    2.6157453471                            ;
 16                             39.35  0.024916423351                            ;
 17                             39.53    1.5185235382                            ;
 18                             36.59     2.221204991                            ;
 19                             36.76               0                            ;
 20                             37.72   0.75832422288                            ;
 21                             37.31    3.4745662357                            ;
 22                             37.62   0.77708664426                            ;
 23                             36.99   0.75981129519                            ;
 24                              35.2    1.7755782409                            ;
 25                             35.11   0.47584169607                            ;
 26                             34.65    0.3375390084                            ;
 27                             34.33   0.49699218278                            ;
 28                             36.15    4.0208581481                            ;
 29                              36.3     0.655570158                            ;
 30                              36.1  0.021970457656                            ;
 31                             36.14  0.016469984082                            ;
 32                              35.8    1.7666129156                            ;
 33                             33.26    1.3132976015                            ;
 34                             33.34   0.78213464191                            ;
 35                             33.51   0.97898019461                            ;
 36                              32.7   0.76930601005                            ;
 37                             32.65    1.5524257895                            ;
 38                             32.56    1.4868191961                            ;
 39                             33.56    6.5776312843                            ;
 40                             31.59    1.9450337349                            ;
 41                             31.38    6.0203472466                            ;
 42                             32.67    3.3485099755                            ;
 43                              33.5    1.4042969844                            ;
 44                             33.57    1.0035675203                            ;
 45                             33.77   0.13556177086                            ;
 46                             34.14   0.99287788193                            ;
 47                             33.68   0.57574513371                            ;
 48                             33.71   0.85198578476                            ;
 49                             31.68   0.92001751989                            ;
 50                             33.34    1.3795994954                            ;
 51                             32.83   0.71163652843                            ;
 52                             32.78    0.3506631665                            ;
 53                             39.28    1.9146654051                            ;
 54                             37.12    0.4284855787                            ;
 55                             36.48    1.0799081393                            ;
 56                             36.42     3.128929569                            ;
 57                             36.13   0.85513038488                            ;
 58                             36.05    1.8069302511                            ;
 59                             36.77    2.0944242828                            ;
 60                             35.48    1.1863100632                            ;
 61                             35.05    1.1765824644                            ;
 62                              35.1   0.75704435164                            ;
 63                             37.95   0.57641125784                            ;
 64                             38.44    1.9555953301                            ;
 65                             37.81   0.70020831861                            ;
 66                             38.22   0.42160947817                            ;
 67                             38.73   0.26432591546                            ;
 68                             38.95    1.1123460712                            ;
 69                              39.7    1.4105091164                            ;
 70                             40.59   0.55547565707                            ;
 71                             40.81   0.82248276505                            ;
 72                             41.06   0.25040105463                            ;
 73                             41.45   0.83405454467                            ;
 74                             41.83   0.49887618496                            ;
 75                             41.44               0                            ;
 76                             41.09    3.7167800318                            ;
 77                             40.74   0.74986690637                            ;
 78                              38.6    2.6193805174                            ;
 79                             36.91   0.80869247939                            ;
 80                             36.75    3.2526491402                            ;
 81                             36.81   0.92228047627                            ;
 82                             37.05   0.60427376984                            ;
 83                             35.88   0.36645523891                            ;
 84                             36.45   0.39964008179                            ;
 85                             36.16    3.4551649571                            ;
 86                             34.99   0.71923717803                            ;
 87                             35.61    2.4548713749                            ;
 88                             34.89    1.9707568037                            ;
 89                             35.59   0.91168053369                            ;
 90                              35.7   0.96806505306                            ;
 91                              35.2   0.92452434696                            ;
 92                             35.64    1.6518454676                            ;
 93                             35.93   0.17717106296                            ;
 94                             37.64    1.5072950983                            ;
 95                             37.17   0.84699829374                            ;
 96                              37.1    2.1644786094                            ;
 97                             36.97   0.27617385954                            ;
 98                                37    1.3588656085                            ;
 99                             36.74  0.039300861005                            ;
 100                            34.78    1.7631192927                            ;
 101                            34.26    2.2945548323                            ;
 102                            33.66    2.3865679188                            ;
 103                            33.78    1.0090814626                            ;
 104                            33.75 0.0090428682179                            ;
 105                            33.38  0.057135184969                            ;
 106                            34.85   0.80823203122                            ;
 107                            34.27   0.70015895874                            ;
 108                             34.3   0.52575620058                            ;
 109                            33.95    1.6978989844                            ;
 110                            33.92   0.20220659196                            ;
 111                            32.32   0.20024325565                            ;
 112                            34.76    1.8881435913                            ;
 113                            34.21    4.8040170301                            ;
 114                            34.92   0.93270476605                            ;
 115                            32.96    4.6091377017                            ;
 116                            30.69               0                            ;
 117                            30.59    2.6249224754                            ;
 118                            30.73               0                            ;
 119                             30.7               0                            ;
 120                            31.02    1.8199011966                            ;
 121                            31.03    0.9255846704                            ;
 122                            31.75   0.88901346608                            ;
 123                               32    1.2018019101                            ;
 124                            32.05               0                            ;
 125                             32.1    1.0801325528                            ;
 126                            33.76    1.7167122445                            ;
 127                            32.27   0.86279964048                            ;
 128                            31.86    4.2782046508                            ;
 129                            32.42   0.64613899995                            ;
 130                               33     1.080142671                            ;
 131                            33.63     4.125402569                            ;
 132                            36.37    1.5366566412                            ;
 133                            35.69    1.1669782076                            ;
 134                            35.52    1.1684898299                            ;
 135                            35.56   0.57465903543                            ;
 136                            35.92    0.8460642667                            ;
 137                            35.37   0.82182878516                            ;
 138                            35.06    1.6685814051                            ;
 139                            34.12    1.1375453257                            ;
 140                            39.35               0                            ;
 141                             39.1               0                            ;
 142                            39.84               0                            ;
 143                            39.84    0.5706771424                            ;
 144                            39.45   0.17270172267                            ;
 145                             39.7   0.22277428008                            ;
 146                            37.95   0.48115386567                            ;
 147                            37.61   0.94907157506                            ;
 148                            37.95  0.069858032228                            ;
 149                            35.69   0.24127744367                            ;
 150                            35.32   0.84989223891                            ;
 151                            35.81   0.38389551543                            ;
 152                            35.81    1.2422116741                            ;
 153                            36.02     0.245959165                            ;
 154                            38.25    0.4815551173                            ;
 155                             37.5    1.6842687766                            ;
 156                            37.54  0.013063558419                            ;
 157                            37.08   0.22896751662                            ;
 158                            36.76    7.3106768502                            ;
 159                            35.88   0.16620127674                            ;
 160                            35.77   0.17268258578                            ;
 161                             34.7  0.015475564128                            ;
 162                            35.37   0.70788484134                            ;
 163                            34.99   0.76059900988                            ;
 164                            35.93   0.37643632919                            ;
 165                            36.27   0.66524809787                            ;
 166                            32.67   0.13500225186                            ;
 167                            32.75    0.1575320715                            ;
 168                            32.88  0.044996525315                            ;
 169                            34.09    6.4035528403                            ;
 170                            36.09    2.0945543892                            ;
 171                            36.05   0.81379206418                            ;
 172                            36.04   0.64857318078                            ;
 173                            36.02    0.2505541184                            ;
 174                            31.76               0                            ;
 175                            31.91   0.98662549242                            ;
 176                             31.8               0                            ;
 177                            31.48               0                            ;
 178                            31.12 0.0051558022247                            ;
 179                             31.1               0                            ;
 180                            31.19               0                            ;
 181                            30.39               0                            ;
 182                            30.55 0.0066068939795                            ;
 183                            31.13    1.4943791943                            ;
 184                            31.81  0.024108025517                            ;
 185                            32.34    1.3890612301                            ;
 186                            32.83    1.7714502815                            ;
 187                            33.69  0.065231138296                            ;
 188                            33.17   0.96309997134                            ;
 189                            33.23    3.2347009932                            ;
 190                            33.34    0.7021273131                            ;
 191                            33.77    0.7454322658                            ;
 192                            33.77    1.3213932725                            ;
 193                             32.2    1.1587995457                            ;
 194                            34.41    3.1571435908                            ;
 195                            33.39  0.030060763023                            ;
 196                            34.34 0.0068758353314                            ;
 197                            35.03    2.3740375614                            ;
 198                            34.44   0.26587919247                            ;
 199                            34.53  0.084247328219                            ;
 200                            34.94    1.0255694188                            ;
 201                             34.7    1.9200177747                            ;
 202                             36.7   0.28265496671                            ;
 203                             36.2    2.2254032509                            ;
 204                            35.03    1.1872043588                            ;
 205                            36.77   0.69104359192                            ;
 206                             36.2   0.37030781935                            ;
 207                            37.88   0.34761987786                            ;
 208                            38.03   0.24900470359                            ;
 209                            36.86   0.92778736813                            ;
 210                            37.24   0.72902577907                            ;
 211                            36.66               0                            ;
 212                            36.49   0.14892566669                            ;
 213                             37.3   0.26049962614                            ;
 214                             40.3   0.29814578979                            ;
 215                            39.85               0                            ;
 216                               41   0.13584101929                            ;
 217                            41.16   0.90539226385                            ;
 218                            35.05   0.41052758614                            ;
 219                            33.92   0.95437388565                            ;
 220                            32.14   0.45630521012                            ;
 221                            34.17   0.22804854638                            ;
 222                             35.1  0.047690980774                            ;
 223                            31.55   0.32770049511                            ;
 224                            31.75   0.38533559685                            ;
 225                            32.07               0                            ;
 226                            31.94               0                            ;
 227                            31.66   0.14537947489                            ;
 228                            31.04  0.059221455053                            ;
 229                            31.05   0.85047810649                            ;
 230                            38.49    0.7394705052                            ;
 231                            35.68   0.62608056002                            ;
 232                            35.39  0.022722715072                            ;
 233                            34.89    0.9240166497                            ;
 234                            34.86     1.191322024                            ;
 235                            34.99    4.1461191472                            ;
 236                            32.54     3.742346484                            ;
 237                            34.41   0.83494276586                            ;
 238                            36.16    1.2432275785                            ;
 239                             35.3   0.17290714795                            ;
 240                            35.17   0.70368338715                            ;
 241                            32.92   0.05754667603                            ;
 242                            33.07   0.76564279301                            ;
 243                            31.91   0.21264752993                            ;
 244                               32   0.28023687676                            ;
 245                            32.05               0                            ;
 246                            32.05 0.0052897654522                            ;
 247                             30.7 0.0060916834143                            ;
 248                            31.33               0                            ;
 249                             36.3   0.87388529509                            ;
 250                            35.83   0.89044746099                            ;
 251                            36.95   0.51365716303                            ;
 252                            38.01   0.90538382435                            ;
 253                            36.65   0.12039943177                            ;
 254                            36.91               0                            ;
 255                            36.77    1.4721864828                            ;
 256                             31.5    1.3701692976                            ;
 257                            38.65   0.29258450829                            ;
 258                            39.54               0                            ;
 259                            39.58   0.36727638883                            ;
 260                            39.58  0.069843611338                            ;
 261                            40.55   0.05762841426                            ;
 262                            40.79   0.16115034128                            ;
 263                            40.95    0.7588149271                            ;
 264                            37.76   0.13819808014                            ;
 265                            35.96   0.15652106428                            ;
 266                            36.81   0.40003631303                            ;
 267                            36.21    1.1046634618                            ;
 268                            35.61   0.17445582728                            ;
 16INT                          39.35               0                            ;
 141INT                          39.1               0                            ;
 258INT                         39.54               0                            ;
 95INT                          37.17               0                            ;
 28INT                          36.15               0                            ;
 8INT                           36.09               0                            ;
 10INT                             37               0                            ;
 89INT                          35.59               0                            ;
 108INT                          34.3               0                            ;
 135INT                         35.56               0                            ;
 51INT                          32.83               0                            ;
 52INT                          32.78               0                            ;

[RESERVOIRS]
;ID                                   Head                  Pattern
 269                               72                            ;
 270                             73.8                            ;
 271                               73                            ;
 272                             74.5                            ;
 TankforNode1                   62.49                            ;
 TankforNode2                   62.62                            ;
 TankforNode3                    61.7                            ;
 TankforNode4                   60.25                            ;
 TankforNode5                   59.27                            ;
 TankforNode6                   58.95                            ;
 TankforNode7                   58.95                            ;
 TankforNode8                   59.09                            ;
 TankforNode9                   59.18                            ;
 TankforNode10                     60                            ;
 TankforNode11                   59.5                            ;
 TankforNode12                  60.39                            ;
 TankforNode13                  61.07                            ;
 TankforNode14                  60.02                            ;
 TankforNode15                  64.26                            ;
 TankforNode16                  62.35                            ;
 TankforNode17                  62.53                            ;
 TankforNode18                  59.59                            ;
 TankforNode20                  60.72                            ;
 TankforNode21                  60.31                            ;
 TankforNode22                  60.62                            ;
 TankforNode23                  59.99                            ;
 TankforNode24                   58.2                            ;
 TankforNode25                  58.11                            ;
 TankforNode26                  57.65                            ;
 TankforNode27                  57.33                            ;
 TankforNode28                  59.15                            ;
 TankforNode29                   59.3                            ;
 TankforNode30                   59.1                            ;
 TankforNode31                  59.14                            ;
 TankforNode32                   58.8                            ;
 TankforNode33                  56.26                            ;
 TankforNode34                  56.34                            ;
 TankforNode35                  56.51                            ;
 TankforNode36                   55.7                            ;
 TankforNode37                  55.65                            ;
 TankforNode38                  55.56                            ;
 TankforNode39                  56.56                            ;
 TankforNode40                  54.59                            ;
 TankforNode41                  54.38                            ;
 TankforNode42                  55.67                            ;
 TankforNode43                   56.5                            ;
 TankforNode44                  56.57                            ;
 TankforNode45                  56.77                            ;
 TankforNode46                  57.14                            ;
 TankforNode47                  56.68                            ;
 TankforNode48                  56.71                            ;
 TankforNode49                  54.68                            ;
 TankforNode50                  56.34                            ;
 TankforNode51                  55.83                            ;
 TankforNode52                  55.78                            ;
 TankforNode53                  62.28                            ;
 TankforNode54                  60.12                            ;
 TankforNode55                  59.48                            ;
 TankforNode56                  59.42                            ;
 TankforNode57                  59.13                            ;
 TankforNode58                  59.05                            ;
 TankforNode59                  59.77                            ;
 TankforNode60                  58.48                            ;
 TankforNode61                  58.05                            ;
 TankforNode62                   58.1                            ;
 TankforNode63                  60.95                            ;
 TankforNode64                  61.44                            ;
 TankforNode65                  60.81                            ;
 TankforNode66                  61.22                            ;
 TankforNode67                  61.73                            ;
 TankforNode68                  61.95                            ;
 TankforNode69                   62.7                            ;
 TankforNode70                  63.59                            ;
 TankforNode71                  63.81                            ;
 TankforNode72                  64.06                            ;
 TankforNode73                  64.45                            ;
 TankforNode74                  64.83                            ;
 TankforNode76                  64.09                            ;
 TankforNode77                  63.74                            ;
 TankforNode78                   61.6                            ;
 TankforNode79                  59.91                            ;
 TankforNode80                  59.75                            ;
 TankforNode81                  59.81                            ;
 TankforNode82                  60.05                            ;
 TankforNode83                  58.88                            ;
 TankforNode84                  59.45                            ;
 TankforNode85                  59.16                            ;
 TankforNode86                  57.99                            ;
 TankforNode87                  58.61                            ;
 TankforNode88                  57.89                            ;