; Filename: /Users/omaraliamer/Desktop/UofT/PhD/Courses/Fall23/MIE1666/PTO_IWS_MIE1666/Net_Files/Network2_12hr_PDA_8valves.inp
; WNTR: 0.4.0
; Created: 2023-12-01 16:55:59
[TITLE]
Pescara -- Bragalli, D'Ambrosio, Lee, Lodi, Toth (2008)
Originally presented by:
Bragalli, C., D'Ambrosio, C., Lee, J., Lodi, A., & Toth, P. (2012, June). On the optimal design of water distribution networks: a practical MINLP approach. Optimization and Engineering, 13 (2), 219-246.
Converted to represent an intermittent water supply using EPANET's PDA method
Details of this specific conversion process are included in:
PLACEHOLDER

[JUNCTIONS]
;ID                      Elevation       Demand Pattern                 
 1                                2.9    4.6686894504                            ;
 2                                  5    7.3733327468                            ;
 3                                3.5    6.2175017133                            ;
 4                                3.8     5.972987309                            ;
 5                                2.2     11.54827982                            ;
 6                                  7    1.1206552548                            ;
 7                                6.5               0                            ;
 8                                5.2    15.330082208                            ;
 9                                4.3    3.7521150033                            ;
 10                               5.2    9.8597203262                            ;
 11                                28    21.651284335                            ;
 12                               3.2   0.19146083625                            ;
 13                               3.2    4.3115043452                            ;
 14                              19.2    5.0669608696                            ;
 17                                 4    2.2754874223                            ;
 18                               3.5    3.9745690784                            ;
 19                               2.8    2.6685595236                            ;
 20                               2.7    17.254630784                            ;
 21                               1.8     10.59957279                            ;
 22                               2.1    8.4788839546                            ;
 23                                 2    1.2572589918                            ;
 24                              18.7    3.1548743671                            ;
 25                               3.2    7.4618034237                            ;
 26                               1.6    2.0938368148                            ;
 27                               3.8    4.2374931592                            ;
 28                               4.3      3.04645543                            ;
 29                               3.6    25.809284345                            ;
 30                               3.2    4.6705859641                            ;
 31                               2.8    3.7441709912                            ;
 32                               1.8    1.7219834385                            ;
 33                               3.8     2.049508433                            ;
 34                               2.9    1.3330436038                            ;
 35                               3.7    7.3119877986                            ;
 36                               2.1    1.3469768018                            ;
 37                               6.7    8.5148389664                            ;
 38                               6.7    9.4109540251                            ;
 39                               4.2    4.4252446294                            ;
 40                               2.9    4.3666388137                            ;
 41                               2.9    2.2757871695                            ;
 42                              28.5    3.8262594606                            ;
 44                              27.3    3.8288337768                            ;
 45                               1.1    4.7367225942                            ;
 46                               2.5    1.4822580831                            ;
 47                               2.8   0.39271660862                            ;
 48                               3.3    9.7455936123                            ;
 49                               1.8    1.7239216598                            ;
 50                               1.8    9.0257233198                            ;
 51                               1.6    1.8328674591                            ;
 52                               1.8     3.561655225                            ;
 53                               1.6    2.0054850733                            ;
 54                               3.3               0                            ;
 55                               2.5    7.3626228259                            ;
 56                               2.8      1.71217485                            ;
 57                               3.2    4.5351871952                            ;
 58                               3.6    1.3447093589                            ;
 59                               3.8   0.58004609753                            ;
 60                               3.1    2.6479727148                            ;
 61                                 3    1.9059429103                            ;
 62                               4.2     5.487350411                            ;
 76                               4.2               0                            ;
 82                               2.1 0.0072780496389                            ;
 83                               2.1               0                            ;
 84                               3.3   0.30080437856                            ;
 85                               2.1    0.2621466778                            ;
 86                               1.5    4.4540333548                            ;
 87                              19.2    11.534129495                            ;
 88                               2.1    1.6153589263                            ;
 89                               1.5    1.5364722104                            ;
 6INT                               7               0                            ;
 17INT                              4               0                            ;
 25INT                            3.2               0                            ;
 27INT                            3.8               0                            ;
 31INT                            2.8               0                            ;
 29INT                            3.6               0                            ;
 11INT                             28               0                            ;
 57INT                            3.2               0                            ;

[RESERVOIRS]
;ID                                   Head                  Pattern
 15                                57                            ;
 43                             53.08                            ;
 65                                55                            ;

[TANKS]
;ID                              Elevation           Init Level            Min Level            Max Level             Diameter           Min Volume Volume Curve         Overflow            

[PIPES]
;ID                   Node1                Node2                              Length             Diameter            Roughness           Minor Loss               Status
 1                    1                    2                             977.36             100             130               0                 Open   ;
 2                    3                    4                             443.17             150             130               0                 Open   ;
 3                    3                    5                            1410.77             100             130               0                 Open   ;
 4                    3                    1                             269.61             125             130               0                 Open   ;
 5                    6                    7                             116.52             100             130               0                 Open   ;
 6                    6                    8                             203.06             100             130               0                 Open   ;
 7                    9                    6INT                         2309.14             100             130               0                 Open   ;
 8                    10                   11                           1479.98             150             130               0                 Open   ;
 11                   15                   14                             43.97             350             130               0                 Open   ;
 12                   13                   17INT                         589.16             200             130               0                 Open   ;
 13                   18                   13                            618.53             200             130               0                 Open   ;
 14                   18                   19                             341.1             200             130               0                 Open   ;
 15                   20                   18                            341.92             100             130               0                 Open   ;
 16                   21                   20                            434.24             100             130               0                 Open   ;
 17                   22                   23                            240.59             100             130               0                 Open   ;
 18                   24                   25INT                         957.44             200             130               0                 Open   ;
 19                   14                   24                            171.04             350             130               0                 Open   ;
 20                   24                   17                            235.57             300             130               0                 Open   ;
 21                   26                   17                              3.59             200             130               0                 Open   ;
 22                   26                   27INT                         324.36             200             130               0                 Open   ;
 24                   21                   22                            749.74             100             130               0                 Open   ;
 25                   23                   21                             639.7             100             130               0                 Open   ;
 26                   27                   23                            422.95             100             130               0                 Open   ;
 27                   20                   27                            843.52             125             130               0                 Open   ;
 28                   19                   20                            609.23             100             130               0                 Open   ;
 29                   28                   29                            179.04             150             130               0                 Open   ;
 30                   28                   30                             570.9             100             130               0                 Open   ;
 31                   30                   28                            575.73             100             130               0                 Open   ;
 32                   31                   32                            250.28             100             130               0                 Open   ;
 33                   30                   33                            442.11             100             130               0                 Open   ;
 34                   34                   30                            762.35             100             130               0                 Open   ;
 35                   35                   36                            1124.9             100             130               0                 Open   ;
 36                   31                   11                           1903.75             100             130               0                 Open   ;
 37                   37                   31INT                         125.51             125             130               0                 Open   ;
 38                   37                   38                            121.27             200             130               0                 Open   ;
 39                   19                   38                             55.32             200             130               0                 Open   ;
 41                   40                   39                            424.86             100             130               0                 Open   ;
 42                   40                   41                              72.8             100             130               0                 Open   ;
 43                   9                    40                            554.08             100             130               0                 Open   ;
 44                   33                   9                             305.53             100             130               0                 Open   ;
 45                   41                   33                            568.35             100             130               0                 Open   ;
 46                   34                   41                             63.81             100             130               0                 Open   ;
 47                   39                   34                            310.76             100             130               0                 Open   ;
 48                   12                   39                           1217.17             200             130               0                 Open   ;
 49                   25                   12                            365.82             150             130               0                 Open   ;
 50                   35                   25                           1408.33             100             130               0                 Open   ;
 51                   29                   35                             33.25             100             130               0                 Open   ;
 52                   8                    29INT                          720.9             200             130               0                 Open   ;
 53                   42                   11INT                         441.69             250             130               0                 Open   ;
 54                   43                   42                            332.99             400             130               0                 Open   ;
 55                   44                   42                            229.85             350             130               0                 Open   ;
 56                   45                   46                            500.92             100             130               0                 Open   ;
 57                   47                   48                            232.07             250             130               0                 Open   ;
 58                   32                   49                              5.43             100             130               0                 Open   ;
 59                   46                   32                             66.24             100             130               0                 Open   ;
 60                   50                   46                            232.13             100             130               0                 Open   ;
 61                   49                   50                            154.78             100             130               0                 Open   ;
 62                   48                   49                             645.1             100             130               0                 Open   ;
 63                   51                   48                            157.87             200             130               0                 Open   ;
 64                   50                   51                            645.79             100             130               0                 Open   ;
 65                   52                   50                            206.69             100             130               0                 Open   ;
 66                   51                   53                            156.75             150             130               0                 Open   ;
 68                   54                   55                            152.81             100             130               0                 Open   ;
 70                   56                   47                             52.37             250             130               0                 Open   ;
 71                   44                   57                            394.67             300             130               0                 Open   ;
 72                   56                   44                            774.69             100             130               0                 Open   ;
 73                   57                   56                            435.58             200             130               0                 Open   ;
 74                   58                   57INT                         899.67             250             130               0                 Open   ;
 75                   59                   60                             198.5             125             130               0                 Open   ;
 76                   55                   61                           1116.15             100             130               0                 Open   ;
 78                   52                   53                             631.8             100             130               0                 Open   ;
 79                   45                   52                            350.97             100             130               0                 Open   ;
 81                   61                   5                             226.03             125             130               0                 Open   ;
 82                   60                   61                            186.77             100             130               0                 Open   ;
 83                   58                   60                            337.24             100             130               0                 Open   ;
 84                   62                   58                            173.09             250             130               0                 Open   ;
 85                   62                   2                             784.45             100             130               0                 Open   ;
 86                   59                   62                             86.39             200             130               0                 Open   ;
 87                   4                    59                            732.93             200             130               0                 Open   ;
 88                   2                    4                             193.78             100             130               0                 Open   ;
 89                   65                   6                            1744.27             100             130               0                 Open   ;
 90                   65                   76                            154.18             250             130               0                 Open   ;
 92                   86                   45                           1635.69             100             130               0                 Open   ;
 93                   76                   8                            1072.69             250             130               0                 Open   ;
 94                   82                   83                                 5             100             130               0                 Open   ;
 95                   82                   85                            240.05             100             130               0                 Open   ;
 96                   22                   85                            841.63             100             130               0                 Open   ;
 97                   26                   83                            601.58             100             130               0                 Open   ;
 98                   5                    86                              1600             100             130               0                 Open   ;
 100                  54                   84                               180             100             130               0                 Open   ;
 102                  83                   85                               240             100             130               0                 Open   ;
 103                  43                   87                                10             150             130               0                 Open   ;
 104                  55                   89                            179.54             100             130               0                 Open   ;
 105                  89                   53                             331.4             100             130               0                 Open   ;
 106                  55                   88                            332.35             100             130               0                 Open   ;
 107                  88                   51                            325.03             100             130               0                 Open   ;
 108                  84                   88                            113.35             100             130               0                 Open   ;
 109                  88                   89                            150.82             100             130               0                 Open   ;
 110                  55                   86                            165.43             100             130               0                 Open   ;

[PUMPS]
;ID                   Node1                Node2                Properties          

[VALVES]
;ID                   Node1                Node2                            Diameter Type              Setting           Minor Loss
 TCV7                 6INT                 6                                400 TCV                0               0   ;
 TCV12                17INT                17                               400 TCV                0               0   ;
 TCV18                25INT                25                               400 TCV                0               0   ;
 TCV22                27INT                27                               400 TCV                0               0   ;
 TCV37                31INT                31                               400 TCV                0               0   ;
 TCV52                29INT                29                               400 TCV                0               0   ;
 TCV53                11INT                11                               400 TCV                0               0   ;
 TCV74                57INT                57                               400 TCV                0               0   ;

[TAGS]
;type      name       tag       

[DEMANDS]
;ID        Demand     Pattern   

[STATUS]
;ID        Setting   

[PATTERNS]
;ID        Multipliers

[CURVES]
;ID         X-Value      Y-Value     

[CONTROLS]

[RULES]

[ENERGY]
GLOBAL EFFICIENCY      75.0000
GLOBAL PRICE           0.0000
DEMAND CHARGE          0.0000

[EMITTERS]
;ID        Flow coefficient

[QUALITY]

[SOURCES]
;Node      Type       Quality    Pattern   

[REACTIONS]
;Type           Pipe/Tank               Coefficient

 ORDER BULK 1
 ORDER TANK 1
 ORDER WALL 1
 GLOBAL BULK 0.0000    
 GLOBAL WALL 0.0000    
 LIMITING POTENTIAL 0.0000    
 ROUGHNESS CORRELATION 0.0000    

[MIXING]
;Tank ID             Model Fraction

[TIMES]
DURATION             12:00:00
HYDRAULIC TIMESTEP   01:00:00
QUALITY TIMESTEP     00:01:00
PATTERN TIMESTEP     02:00:00
PATTERN START        00:00:00
REPORT TIMESTEP      00:01:00
REPORT START         00:00:00
START CLOCKTIME      00:00:00 AM
RULE TIMESTEP        00:06:00
STATISTIC            NONE      

[REPORT]
SUMMARY    NO
PAGE       0

[OPTIONS]
UNITS                LPS                 
HEADLOSS             H-W                 
SPECIFIC GRAVITY     1
VISCOSITY            1
TRIALS               40
ACCURACY             0.001
CHECKFREQ            2
MAXCHECK             10
UNBALANCED           CONTINUE 10
DEMAND MULTIPLIER    1
DEMAND MODEL         PDA
MINIMUM PRESSURE     0.00
REQUIRED PRESSURE    10.00
PRESSURE EXPONENT    0.5
EMITTER EXPONENT     0.5
QUALITY              Chlorine mg/L
DIFFUSIVITY          1
TOLERANCE            0.01

[COORDINATES]
;Node      X-Coord    Y-Coord   
1                   0.000000000       2803.810000000
2                 706.180000000       2577.060000000
3                 269.310000000       2790.750000000
4                 711.750000000       2769.810000000
5                1350.560000000       3096.500000000
6                4763.870000000        165.940000000
7                4669.310000000        114.750000000
8                4964.750000000        195.690000000
9                3679.310000000       1350.250000000
10               3364.810000000       1460.190000000
11               2537.870000000       1614.750000000
12               5106.810000000       1722.810000000
13               5041.000000000       2225.250000000
14               5899.930000000       2425.310000000
17               5549.000000000       2513.120000000
18               4424.000000000       2268.370000000
19               4090.560000000       2299.620000000
20               4429.120000000       2610.000000000
21               4638.180000000       2982.250000000
22               5274.060000000       3218.690000000
23               5277.870000000       2981.440000000
24               5743.120000000       2464.750000000
25               5448.930000000       1594.250000000
26               5552.180000000       2514.750000000
27               5270.810000000       2558.560000000
28               4558.620000000        859.810000000
29               4736.750000000        876.370000000
30               4295.810000000       1219.690000000
31               3807.250000000       2384.190000000
32               3798.310000000       2628.560000000
33               3974.430000000       1288.620000000
34               4013.750000000       1848.370000000
35               4725.120000000        907.560000000
36               4274.750000000       1853.120000000
37               3917.560000000       2330.500000000
38               4035.430000000       2304.060000000
39               4068.370000000       2154.250000000
40               3878.430000000       1866.750000000
41               3950.430000000       1856.370000000
42               2463.430000000       2042.750000000
44               2432.120000000       2269.310000000
45               4121.680000000       2940.060000000
46               3864.500000000       2626.690000000
47               2921.180000000       2686.750000000
48               3150.000000000       2662.500000000
49               3794.180000000       2629.310000000
50               3793.000000000       2784.000000000
51               3151.310000000       2818.440000000
52               3788.500000000       2990.620000000
53               3157.060000000       2975.060000000
54               2647.250000000       2841.500000000
55               2646.310000000       2989.190000000
56               2874.560000000       2662.870000000
57               2514.370000000       2603.750000000
58               1615.560000000       2642.000000000
59               1444.060000000       2741.440000000
60               1531.870000000       2857.620000000
61               1536.870000000       3044.310000000
62               1442.930000000       2655.060000000
76               5940.250000000        133.870000000
82               5871.120000000       3074.690000000
83               5875.750000000       3072.810000000
84               2825.810000000       2720.000000000
85               5965.180000000       3295.500000000
86               2825.810000000       3149.620000000
87               2145.810000000       1962.310000000
88               2825.810000000       2833.370000000
89               2825.810000000       2984.190000000
6INT             4763.870000000        165.940000000
17INT            5549.000000000       2513.120000000
25INT            5448.930000000       1594.250000000
27INT            5270.810000000       2558.560000000
31INT            3807.250000000       2384.190000000
29INT            4736.750000000        876.370000000
11INT            2537.870000000       1614.750000000
57INT            2514.370000000       2603.750000000
15               5909.680000000       2382.370000000
43               2155.810000000       1962.310000000
65               5985.310000000          0.000000000

[VERTICES]
;Link      X-Coord    Y-Coord   

[LABELS]

[BACKDROP]
DIMENSIONS    656280.190    960321.300    662939.250    963953.020
UNITS    NONE
OFFSET    0.00    0.00

[END]
